/*--------------------------------*- C++ -*----------------------------------*\
| =========                 |                                                 |
| \\      /  F ield         | OpenFOAM: The Open Source CFD Toolbox           |
|  \\    /   O peration     | Version:  v1612+                                |
|   \\  /    A nd           | Web:      www.OpenFOAM.com                      |
|    \\/     M anipulation  |                                                 |
\*---------------------------------------------------------------------------*/
FoamFile
{
    version     2.0;
    format      ascii;
    class       volScalarField;
    location    "0";
    object      p;
}
// * * * * * * * * * * * * * * * * * * * * * * * * * * * * * * * * * * * * * //

dimensions      [1 -1 -2 0 0 0 0];

internalField   uniform <VAR pressure_outlet VAR>;

boundaryField
{
    INLET
    {
        type            waveTransmissive;
        gamma           1.4;
	    value		    uniform <VAR pressure_inlet VAR>;

    }
    OUTLET
    {
        type            waveTransmissive;
        gamma		    1.4;
        value		    uniform <VAR pressure_outlet VAR>;
        fieldInf  	    <VAR pressure_outlet VAR>;
        lInf            0.01;
    }
    BLADE
    {
        type            zeroGradient;
    }

    Z_lower
    {
        type            cyclic;
    }

    Z_upper
    {
        type            cyclic;
    }

    Y_lower
    {
        type            cyclic;
    }

    Y_upper
    {
        type            cyclic;
    }


}
// ************************************************************************* //
